43
	Energy:     254.2936838
C         -6.92800        4.00051        0.15269
C         -6.52940        2.61580        0.07751
C         -7.53907        4.31516       -0.99397
C         -8.09881        5.65556       -1.30823
C         -8.71608        6.02843       -2.42282
C         -7.51958        3.09227       -1.80488
N         -6.94345        2.14012       -1.17350
C         -8.06637        2.94235       -3.15131
C         -6.67645        4.86858        1.32659
C         -5.87934        1.94546        1.05368
C         -8.07310        1.86597       -3.88671
N         -7.55857        0.67143       -3.51852
C         -8.63863        1.85474       -5.17995
C         -8.46308        0.57266       -5.63671
C         -7.80200       -0.11974       -4.59522
C         -9.30318        3.03967       -5.90089
C         -8.87031       -0.01422       -6.96159
C         -7.46443       -1.40301       -4.68261
C         -9.49293        0.56965       -7.99564
C         -6.78451       -2.16734       -3.66353
C         -6.43817       -3.57036       -3.78124
C         -6.70877       -4.46091       -4.94724
C         -5.82730       -3.90052       -2.65097
C         -5.27897       -5.22905       -2.27608
C         -5.79788       -2.70706       -1.82528
N         -6.40708       -1.69135       -2.54925
C         -5.28802       -2.62504       -0.59041
C         -3.76823       -5.18230       -2.08267
C         -3.04842       -5.00844       -3.37925
O         -3.14406       -5.86318       -4.24429
O         -2.28120       -3.92203       -3.59173
C         -5.20675       -1.45917        0.29554
C         -5.46814        0.54929        1.02520
N         -5.70192       -0.26350       -0.01216
C         -4.79539       -0.13862        2.02785
C         -4.62613       -1.41928        1.55363
C         -4.32607        0.36249        3.35594
C         -3.94760       -2.53640        2.26428
C         -2.71118       -2.97691        1.49662
C         -2.06126       -4.13664        2.17190
O         -1.56552       -4.00249        3.41606
O         -1.97150       -5.20783        1.59379
Fe        -6.61023        0.17362       -1.74007
